                                                                         
                    ls-dyna smp s R13 R13.1.1_13_5480ec date 11/15/2022


 dt of cycle       1 is controlled by solid           7000 of part         1

 time...........................   0.00000E+00
 time step......................   4.18786E-01
 kinetic energy.................   0.00000E+00
 internal energy................   2.75200E+00
 spring and damper energy.......   1.00000E-20
 hourglass energy ..............   0.00000E+00
 system damping energy..........   0.00000E+00
 sliding interface energy.......   0.00000E+00
 external work..................   0.00000E+00
 eroded kinetic energy..........   0.00000E+00
 eroded internal energy.........   0.00000E+00
 eroded hourglass energy........   0.00000E+00
 total energy...................   2.75200E+00
 total energy / initial energy..   1.00000E+00
 energy ratio w/o eroded energy.   1.00000E+00
 global x velocity..............   0.00000E+00
 global y velocity..............   0.00000E+00
 global z velocity..............   0.00000E+00
 time per zone cycle.(nanosec)..             0


 dt of cycle       2 is controlled by solid            176 of part         1

 time...........................   4.18786E-01
 time step......................   4.18786E-01
 kinetic energy.................   0.00000E+00
 internal energy................   2.75200E+00
 spring and damper energy.......   1.00000E-20
 hourglass energy ..............   0.00000E+00
 system damping energy..........   0.00000E+00
 sliding interface energy.......   0.00000E+00
 external work..................   0.00000E+00
 eroded kinetic energy..........   0.00000E+00
 eroded internal energy.........   0.00000E+00
 eroded hourglass energy........   0.00000E+00
 total energy...................   2.75200E+00
 total energy / initial energy..   1.00000E+00
 energy ratio w/o eroded energy.   1.00000E+00
 global x velocity..............   0.00000E+00
 global y velocity..............   0.00000E+00
 global z velocity..............   0.00000E+00
 time per zone cycle.(nanosec)..          2320


 dt of cycle       3 is controlled by solid            176 of part         1

 time...........................   8.37573E-01
 time step......................   4.18786E-01
 kinetic energy.................   0.00000E+00
 internal energy................   2.75200E+00
 spring and damper energy.......   1.00000E-20
 hourglass energy ..............   0.00000E+00
 system damping energy..........   0.00000E+00
 sliding interface energy.......   0.00000E+00
 external work..................   0.00000E+00
 eroded kinetic energy..........   0.00000E+00
 eroded internal energy.........   0.00000E+00
 eroded hourglass energy........   0.00000E+00
 total energy...................   2.75200E+00
 total energy / initial energy..   1.00000E+00
 energy ratio w/o eroded energy.   1.00000E+00
 global x velocity..............   0.00000E+00
 global y velocity..............   0.00000E+00
 global z velocity..............   0.00000E+00
 time per zone cycle.(nanosec)..          1700


 dt of cycle       4 is controlled by solid            176 of part         1

 time...........................   1.25636E+00
 time step......................   4.18786E-01
 kinetic energy.................   7.27223E-07
 internal energy................   2.75200E+00
 spring and damper energy.......   1.00000E-20
 hourglass energy ..............   0.00000E+00
 system damping energy..........   0.00000E+00
 sliding interface energy.......   0.00000E+00
 external work..................   0.00000E+00
 eroded kinetic energy..........   0.00000E+00
 eroded internal energy.........   0.00000E+00
 eroded hourglass energy........   0.00000E+00
 total energy...................   2.75200E+00
 total energy / initial energy..   1.00000E+00
 energy ratio w/o eroded energy.   1.00000E+00
 global x velocity..............   1.78568E-12
 global y velocity..............   1.78568E-12
 global z velocity..............   0.00000E+00
 time per zone cycle.(nanosec)..          1902


 dt of cycle       5 is controlled by solid            176 of part         1

 time...........................   1.67515E+00
 time step......................   4.18786E-01
 kinetic energy.................   2.38049E-05
 internal energy................   2.75199E+00
 spring and damper energy.......   1.00000E-20
 hourglass energy ..............   2.75629E-12
 system damping energy..........   0.00000E+00
 sliding interface energy.......   0.00000E+00
 external work..................   0.00000E+00
 eroded kinetic energy..........   0.00000E+00
 eroded internal energy.........   0.00000E+00
 eroded hourglass energy........   0.00000E+00
 total energy...................   2.75201E+00
 total energy / initial energy..   1.00000E+00
 energy ratio w/o eroded energy.   1.00000E+00
 global x velocity..............   1.03130E-11
 global y velocity..............   1.03130E-11
 global z velocity..............   0.00000E+00
 time per zone cycle.(nanosec)..          2346


 dt of cycle       6 is controlled by solid            176 of part         1

 time...........................   2.09393E+00
 time step......................   4.18786E-01
 kinetic energy.................   1.79180E-04
 internal energy................   2.75185E+00
 spring and damper energy.......   1.00000E-20
 hourglass energy ..............   6.14604E-11
 system damping energy..........   0.00000E+00
 sliding interface energy.......   0.00000E+00
 external work..................   0.00000E+00
 eroded kinetic energy..........   0.00000E+00
 eroded internal energy.........   0.00000E+00
 eroded hourglass energy........   0.00000E+00
 total energy...................   2.75203E+00
 total energy / initial energy..   1.00001E+00
 energy ratio w/o eroded energy.   1.00001E+00
 global x velocity..............   2.87504E-11
 global y velocity..............   2.87504E-11
 global z velocity..............   0.00000E+00
 time per zone cycle.(nanosec)..          2491


 dt of cycle       7 is controlled by solid            176 of part         1

 time...........................   2.51272E+00
 time step......................   4.18786E-01
 kinetic energy.................   6.09390E-04
 internal energy................   2.75143E+00
 spring and damper energy.......   1.00000E-20
 hourglass energy ..............   3.41390E-10
 system damping energy..........   0.00000E+00
 sliding interface energy.......   0.00000E+00
 external work..................   0.00000E+00
 eroded kinetic energy..........   0.00000E+00
 eroded internal energy.........   0.00000E+00
 eroded hourglass energy........   0.00000E+00
 total energy...................   2.75204E+00
 total energy / initial energy..   1.00002E+00
 energy ratio w/o eroded energy.   1.00002E+00
 global x velocity..............   6.12618E-11
 global y velocity..............   6.12619E-11
 global z velocity..............   0.00000E+00
 time per zone cycle.(nanosec)..          1517


 dt of cycle       8 is controlled by solid            176 of part         1

 time...........................   2.93150E+00
 time step......................   4.18786E-01
 kinetic energy.................   1.42384E-03
 internal energy................   2.75065E+00
 spring and damper energy.......   1.00000E-20
 hourglass energy ..............   7.87988E-10
 system damping energy..........   0.00000E+00
 sliding interface energy.......   0.00000E+00
 external work..................   0.00000E+00
 eroded kinetic energy..........   0.00000E+00
 eroded internal energy.........   0.00000E+00
 eroded hourglass energy........   0.00000E+00
 total energy...................   2.75207E+00
 total energy / initial energy..   1.00003E+00
 energy ratio w/o eroded energy.   1.00003E+00
 global x velocity..............   1.11777E-10
 global y velocity..............   1.11777E-10
 global z velocity..............   0.00000E+00
 time per zone cycle.(nanosec)..          1644


 dt of cycle       9 is controlled by solid            176 of part         1

 time...........................   3.35029E+00
 time step......................   4.18786E-01
 kinetic energy.................   2.65256E-03
 internal energy................   2.74944E+00
 spring and damper energy.......   1.00000E-20
 hourglass energy ..............   1.32818E-09
 system damping energy..........   0.00000E+00
 sliding interface energy.......   0.00000E+00
 external work..................   0.00000E+00
 eroded kinetic energy..........   0.00000E+00
 eroded internal energy.........   0.00000E+00
 eroded hourglass energy........   0.00000E+00
 total energy...................   2.75209E+00
 total energy / initial energy..   1.00003E+00
 energy ratio w/o eroded energy.   1.00003E+00
 global x velocity..............   1.76181E-10
 global y velocity..............   1.76181E-10
 global z velocity..............   0.00000E+00
 time per zone cycle.(nanosec)..          1745


 dt of cycle      10 is controlled by solid            176 of part         1

 time...........................   3.76908E+00
 time step......................   4.18786E-01
 kinetic energy.................   4.26368E-03
 internal energy................   2.74785E+00
 spring and damper energy.......   1.00000E-20
 hourglass energy ..............   1.96003E-09
 system damping energy..........   0.00000E+00
 sliding interface energy.......   0.00000E+00
 external work..................   0.00000E+00
 eroded kinetic energy..........   0.00000E+00
 eroded internal energy.........   0.00000E+00
 eroded hourglass energy........   0.00000E+00
 total energy...................   2.75211E+00
 total energy / initial energy..   1.00004E+00
 energy ratio w/o eroded energy.   1.00004E+00
 global x velocity..............   2.54456E-10
 global y velocity..............   2.54456E-10
 global z velocity..............   0.00000E+00
 time per zone cycle.(nanosec)..          1904


 dt of cycle      11 is controlled by solid            176 of part         1

 time...........................   4.18786E+00
 time step......................   4.18786E-01
 kinetic energy.................   6.29481E-03
 internal energy................   2.74583E+00
 spring and damper energy.......   1.00000E-20
 hourglass energy ..............   2.66213E-09
 system damping energy..........   0.00000E+00
 sliding interface energy.......   0.00000E+00
 external work..................   0.00000E+00
 eroded kinetic energy..........   0.00000E+00
 eroded internal energy.........   0.00000E+00
 eroded hourglass energy........   0.00000E+00
 total energy...................   2.75212E+00
 total energy / initial energy..   1.00004E+00
 energy ratio w/o eroded energy.   1.00004E+00
 global x velocity..............   3.47651E-10
 global y velocity..............   3.47651E-10
 global z velocity..............   0.00000E+00
 time per zone cycle.(nanosec)..          2961


 dt of cycle      12 is controlled by solid            176 of part         1

 time...........................   4.60665E+00
 time step......................   4.18786E-01
 kinetic energy.................   8.77700E-03
 internal energy................   2.74338E+00
 spring and damper energy.......   1.00000E-20
 hourglass energy ..............   3.41818E-09
 system damping energy..........   0.00000E+00
 sliding interface energy.......   0.00000E+00
 external work..................   0.00000E+00
 eroded kinetic energy..........   0.00000E+00
 eroded internal energy.........   0.00000E+00
 eroded hourglass energy........   0.00000E+00
 total energy...................   2.75216E+00
 total energy / initial energy..   1.00006E+00
 energy ratio w/o eroded energy.   1.00006E+00
 global x velocity..............   4.50843E-10
 global y velocity..............   4.50843E-10
 global z velocity..............   0.00000E+00
 time per zone cycle.(nanosec)..          1841


 dt of cycle      13 is controlled by solid            176 of part         1

 time...........................   5.02544E+00
 time step......................   4.18786E-01
 kinetic energy.................   1.17572E-02
 internal energy................   2.74042E+00
 spring and damper energy.......   1.00000E-20
 hourglass energy ..............   4.30785E-09
 system damping energy..........   0.00000E+00
 sliding interface energy.......   0.00000E+00
 external work..................   0.00000E+00
 eroded kinetic energy..........   0.00000E+00
 eroded internal energy.........   0.00000E+00
 eroded hourglass energy........   0.00000E+00
 total energy...................   2.75218E+00
 total energy / initial energy..   1.00007E+00
 energy ratio w/o eroded energy.   1.00007E+00
 global x velocity..............   5.66927E-10
 global y velocity..............   5.66927E-10
 global z velocity..............   0.00000E+00
 time per zone cycle.(nanosec)..          2266


 dt of cycle      14 is controlled by solid            176 of part         1

 time...........................   5.44422E+00
 time step......................   4.18786E-01
 kinetic energy.................   1.51584E-02
 internal energy................   2.73704E+00
 spring and damper energy.......   1.00000E-20
 hourglass energy ..............   5.34392E-09
 system damping energy..........   0.00000E+00
 sliding interface energy.......   0.00000E+00
 external work..................   0.00000E+00
 eroded kinetic energy..........   0.00000E+00
 eroded internal energy.........   0.00000E+00
 eroded hourglass energy........   0.00000E+00
 total energy...................   2.75220E+00
 total energy / initial energy..   1.00007E+00
 energy ratio w/o eroded energy.   1.00007E+00
 global x velocity..............   6.97490E-10
 global y velocity..............   6.97490E-10
 global z velocity..............   0.00000E+00
 time per zone cycle.(nanosec)..          1604


 dt of cycle      15 is controlled by solid            176 of part         1

 time...........................   5.86301E+00
 time step......................   4.18786E-01
 kinetic energy.................   1.90481E-02
 internal energy................   2.73318E+00
 spring and damper energy.......   1.00000E-20
 hourglass energy ..............   6.43566E-09
 system damping energy..........   0.00000E+00
 sliding interface energy.......   0.00000E+00
 external work..................   0.00000E+00
 eroded kinetic energy..........   0.00000E+00
 eroded internal energy.........   0.00000E+00
 eroded hourglass energy........   0.00000E+00
 total energy...................   2.75222E+00
 total energy / initial energy..   1.00008E+00
 energy ratio w/o eroded energy.   1.00008E+00
 global x velocity..............   8.37796E-10
 global y velocity..............   8.37796E-10
 global z velocity..............   0.00000E+00
 time per zone cycle.(nanosec)..          1498


 dt of cycle      16 is controlled by solid            176 of part         1

 time...........................   6.28179E+00
 time step......................   4.18786E-01
 kinetic energy.................   2.34135E-02
 internal energy................   2.72884E+00
 spring and damper energy.......   1.00000E-20
 hourglass energy ..............   7.65749E-09
 system damping energy..........   0.00000E+00
 sliding interface energy.......   0.00000E+00
 external work..................   0.00000E+00
 eroded kinetic energy..........   0.00000E+00
 eroded internal energy.........   0.00000E+00
 eroded hourglass energy........   0.00000E+00
 total energy...................   2.75225E+00
 total energy / initial energy..   1.00009E+00
 energy ratio w/o eroded energy.   1.00009E+00
 global x velocity..............   9.91522E-10
 global y velocity..............   9.91522E-10
 global z velocity..............   0.00000E+00
 time per zone cycle.(nanosec)..          1631


 dt of cycle      17 is controlled by solid            176 of part         1

 time...........................   6.70058E+00
 time step......................   4.18786E-01
 kinetic energy.................   2.83003E-02
 internal energy................   2.72398E+00
 spring and damper energy.......   1.00000E-20
 hourglass energy ..............   8.98938E-09
 system damping energy..........   0.00000E+00
 sliding interface energy.......   0.00000E+00
 external work..................   0.00000E+00
 eroded kinetic energy..........   0.00000E+00
 eroded internal energy.........   0.00000E+00
 eroded hourglass energy........   0.00000E+00
 total energy...................   2.75228E+00
 total energy / initial energy..   1.00010E+00
 energy ratio w/o eroded energy.   1.00010E+00
 global x velocity..............   1.15978E-09
 global y velocity..............   1.15978E-09
 global z velocity..............   0.00000E+00
 time per zone cycle.(nanosec)..          1451


 dt of cycle      18 is controlled by solid            176 of part         1

 time...........................   7.11937E+00
 time step......................   4.18786E-01
 kinetic energy.................   3.36926E-02
 internal energy................   2.71859E+00
 spring and damper energy.......   1.00000E-20
 hourglass energy ..............   1.04097E-08
 system damping energy..........   0.00000E+00
 sliding interface energy.......   0.00000E+00
 external work..................   0.00000E+00
 eroded kinetic energy..........   0.00000E+00
 eroded internal energy.........   0.00000E+00
 eroded hourglass energy........   0.00000E+00
 total energy...................   2.75228E+00
 total energy / initial energy..   1.00010E+00
 energy ratio w/o eroded energy.   1.00010E+00
 global x velocity..............   1.33786E-09
 global y velocity..............   1.33786E-09
 global z velocity..............   0.00000E+00
 time per zone cycle.(nanosec)..          1701


 dt of cycle      19 is controlled by solid             66 of part         1

 time...........................   7.53815E+00
 time step......................   4.18786E-01
 kinetic energy.................   3.95385E-02
 internal energy................   2.71276E+00
 spring and damper energy.......   1.00000E-20
 hourglass energy ..............   1.19297E-08
 system damping energy..........   0.00000E+00
 sliding interface energy.......   0.00000E+00
 external work..................   0.00000E+00
 eroded kinetic energy..........   0.00000E+00
 eroded internal energy.........   0.00000E+00
 eroded hourglass energy........   0.00000E+00
 total energy...................   2.75230E+00
 total energy / initial energy..   1.00011E+00
 energy ratio w/o eroded energy.   1.00011E+00
 global x velocity..............   1.52974E-09
 global y velocity..............   1.52974E-09
 global z velocity..............   0.00000E+00
 time per zone cycle.(nanosec)..          1473


 dt of cycle      20 is controlled by solid             65 of part         1

 time...........................   7.95694E+00
 time step......................   4.18786E-01
 kinetic energy.................   4.58926E-02
 internal energy................   2.70643E+00
 spring and damper energy.......   1.00000E-20
 hourglass energy ..............   1.35830E-08
 system damping energy..........   0.00000E+00
 sliding interface energy.......   0.00000E+00
 external work..................   0.00000E+00
 eroded kinetic energy..........   0.00000E+00
 eroded internal energy.........   0.00000E+00
 eroded hourglass energy........   0.00000E+00
 total energy...................   2.75232E+00
 total energy / initial energy..   1.00012E+00
 energy ratio w/o eroded energy.   1.00012E+00
 global x velocity..............   1.73618E-09
 global y velocity..............   1.73618E-09
 global z velocity..............   0.00000E+00
 time per zone cycle.(nanosec)..          1449


 dt of cycle      21 is controlled by solid             68 of part         1

 time...........................   8.37573E+00
 time step......................   4.18785E-01
 kinetic energy.................   5.27251E-02
 internal energy................   2.69961E+00
 spring and damper energy.......   1.00000E-20
 hourglass energy ..............   1.52702E-08
 system damping energy..........   0.00000E+00
 sliding interface energy.......   0.00000E+00
 external work..................   0.00000E+00
 eroded kinetic energy..........   0.00000E+00
 eroded internal energy.........   0.00000E+00
 eroded hourglass energy........   0.00000E+00
 total energy...................   2.75233E+00
 total energy / initial energy..   1.00012E+00
 energy ratio w/o eroded energy.   1.00012E+00
 global x velocity..............   1.95263E-09
 global y velocity..............   1.95263E-09
 global z velocity..............   0.00000E+00
 time per zone cycle.(nanosec)..          1620


 dt of cycle      22 is controlled by solid             73 of part         1

 time...........................   8.79451E+00
 time step......................   4.18785E-01
 kinetic energy.................   6.00637E-02
 internal energy................   2.69226E+00
 spring and damper energy.......   1.00000E-20
 hourglass energy ..............   1.70681E-08
 system damping energy..........   0.00000E+00
 sliding interface energy.......   0.00000E+00
 external work..................   0.00000E+00
 eroded kinetic energy..........   0.00000E+00
 eroded internal energy.........   0.00000E+00
 eroded hourglass energy........   0.00000E+00
 total energy...................   2.75233E+00
 total energy / initial energy..   1.00012E+00
 energy ratio w/o eroded energy.   1.00012E+00
 global x velocity..............   2.18304E-09
 global y velocity..............   2.18304E-09
 global z velocity..............   0.00000E+00
 time per zone cycle.(nanosec)..          1603


 dt of cycle      23 is controlled by solid             73 of part         1

 time...........................   9.21330E+00
 time step......................   4.18782E-01
 kinetic energy.................   6.78907E-02
 internal energy................   2.68446E+00
 spring and damper energy.......   1.00000E-20
 hourglass energy ..............   1.89658E-08
 system damping energy..........   0.00000E+00
 sliding interface energy.......   0.00000E+00
 external work..................   0.00000E+00
 eroded kinetic energy..........   0.00000E+00
 eroded internal energy.........   0.00000E+00
 eroded hourglass energy........   0.00000E+00
 total energy...................   2.75235E+00
 total energy / initial energy..   1.00013E+00
 energy ratio w/o eroded energy.   1.00013E+00
 global x velocity..............   2.42804E-09
 global y velocity..............   2.42804E-09
 global z velocity..............   0.00000E+00
 time per zone cycle.(nanosec)..          1774


 dt of cycle      24 is controlled by solid             73 of part         1

 time...........................   9.63208E+00
 time step......................   4.18774E-01
 kinetic energy.................   7.62532E-02
 internal energy................   2.67609E+00
 spring and damper energy.......   1.00000E-20
 hourglass energy ..............   2.09515E-08
 system damping energy..........   0.00000E+00
 sliding interface energy.......   0.00000E+00
 external work..................   0.00000E+00
 eroded kinetic energy..........   0.00000E+00
 eroded internal energy.........   0.00000E+00
 eroded hourglass energy........   0.00000E+00
 total energy...................   2.75234E+00
 total energy / initial energy..   1.00012E+00
 energy ratio w/o eroded energy.   1.00012E+00
 global x velocity..............   2.68319E-09
 global y velocity..............   2.68319E-09
 global z velocity..............   0.00000E+00
 time per zone cycle.(nanosec)..          1631


 dt of cycle      25 is controlled by solid             73 of part         1

 time...........................   1.00509E+01
 time step......................   4.18739E-01
 kinetic energy.................   8.50351E-02
 internal energy................   2.66731E+00
 spring and damper energy.......   1.00000E-20
 hourglass energy ..............   2.30174E-08
 system damping energy..........   0.00000E+00
 sliding interface energy.......   0.00000E+00
 external work..................   0.00000E+00
 eroded kinetic energy..........   0.00000E+00
 eroded internal energy.........   0.00000E+00
 eroded hourglass energy........   0.00000E+00
 total energy...................   2.75235E+00
 total energy / initial energy..   1.00013E+00
 energy ratio w/o eroded energy.   1.00013E+00
 global x velocity..............   2.95265E-09
 global y velocity..............   2.95265E-09
 global z velocity..............   0.00000E+00
 time per zone cycle.(nanosec)..          1951


 dt of cycle      26 is controlled by solid            802 of part         1

 time...........................   1.04696E+01
 time step......................   4.18640E-01
 kinetic energy.................   9.43783E-02
 internal energy................   2.65794E+00
 spring and damper energy.......   1.00000E-20
 hourglass energy ..............   2.51786E-08
 system damping energy..........   0.00000E+00
 sliding interface energy.......   0.00000E+00
 external work..................   0.00000E+00
 eroded kinetic energy..........   0.00000E+00
 eroded internal energy.........   0.00000E+00
 eroded hourglass energy........   0.00000E+00
 total energy...................   2.75232E+00
 total energy / initial energy..   1.00012E+00
 energy ratio w/o eroded energy.   1.00012E+00
 global x velocity..............   3.23867E-09
 global y velocity..............   3.23867E-09
 global z velocity..............   0.00000E+00
 time per zone cycle.(nanosec)..          1826


 dt of cycle      27 is controlled by solid            802 of part         1

 time...........................   1.08882E+01
 time step......................   4.18212E-01
 kinetic energy.................   1.04007E-01
 internal energy................   2.64829E+00
 spring and damper energy.......   1.00000E-20
 hourglass energy ..............   2.73623E-08
 system damping energy..........   0.00000E+00
 sliding interface energy.......   0.00000E+00
 external work..................   0.00000E+00
 eroded kinetic energy..........   0.00000E+00
 eroded internal energy.........   0.00000E+00
 eroded hourglass energy........   0.00000E+00
 total energy...................   2.75230E+00
 total energy / initial energy..   1.00011E+00
 energy ratio w/o eroded energy.   1.00011E+00
 global x velocity..............   3.54036E-09
 global y velocity..............   3.54036E-09
 global z velocity..............   0.00000E+00
 time per zone cycle.(nanosec)..          1618


 dt of cycle      28 is controlled by solid             73 of part         1

 time...........................   1.13064E+01
 time step......................   4.17497E-01
 kinetic energy.................   1.13702E-01
 internal energy................   2.63858E+00
 spring and damper energy.......   1.00000E-20
 hourglass energy ..............   2.95524E-08
 system damping energy..........   0.00000E+00
 sliding interface energy.......   0.00000E+00
 external work..................   0.00000E+00
 eroded kinetic energy..........   0.00000E+00
 eroded internal energy.........   0.00000E+00
 eroded hourglass energy........   0.00000E+00
 total energy...................   2.75229E+00
 total energy / initial energy..   1.00010E+00
 energy ratio w/o eroded energy.   1.00010E+00
 global x velocity..............   3.86258E-09
 global y velocity..............   3.86258E-09
 global z velocity..............   0.00000E+00
 time per zone cycle.(nanosec)..          1816


 dt of cycle      29 is controlled by solid             73 of part         1

 time...........................   1.17239E+01
 time step......................   4.17362E-01
 kinetic energy.................   1.23544E-01
 internal energy................   2.62872E+00
 spring and damper energy.......   1.00000E-20
 hourglass energy ..............   3.17721E-08
 system damping energy..........   0.00000E+00
 sliding interface energy.......   0.00000E+00
 external work..................   0.00000E+00
 eroded kinetic energy..........   0.00000E+00
 eroded internal energy.........   0.00000E+00
 eroded hourglass energy........   0.00000E+00
 total energy...................   2.75226E+00
 total energy / initial energy..   1.00009E+00
 energy ratio w/o eroded energy.   1.00009E+00
 global x velocity..............   4.20722E-09
 global y velocity..............   4.20722E-09
 global z velocity..............   0.00000E+00
 time per zone cycle.(nanosec)..          1584


 dt of cycle      30 is controlled by solid             81 of part         1

 time...........................   1.21413E+01
 time step......................   4.17523E-01
 kinetic energy.................   1.33921E-01
 internal energy................   2.61827E+00
 spring and damper energy.......   1.00000E-20
 hourglass energy ..............   3.39781E-08
 system damping energy..........   0.00000E+00
 sliding interface energy.......   0.00000E+00
 external work..................   0.00000E+00
 eroded kinetic energy..........   0.00000E+00
 eroded internal energy.........   0.00000E+00
 eroded hourglass energy........   0.00000E+00
 total energy...................   2.75219E+00
 total energy / initial energy..   1.00007E+00
 energy ratio w/o eroded energy.   1.00007E+00
 global x velocity..............   4.57275E-09
 global y velocity..............   4.57275E-09
 global z velocity..............   0.00000E+00
 time per zone cycle.(nanosec)..          1887


 dt of cycle      31 is controlled by solid             89 of part         1

 time...........................   1.25588E+01
 time step......................   4.17897E-01
 kinetic energy.................   1.44905E-01
 internal energy................   2.60722E+00
 spring and damper energy.......   1.00000E-20
 hourglass energy ..............   3.61438E-08
 system damping energy..........   0.00000E+00
 sliding interface energy.......   0.00000E+00
 external work..................   0.00000E+00
 eroded kinetic energy..........   0.00000E+00
 eroded internal energy.........   0.00000E+00
 eroded hourglass energy........   0.00000E+00
 total energy...................   2.75213E+00
 total energy / initial energy..   1.00005E+00
 energy ratio w/o eroded energy.   1.00005E+00
 global x velocity..............   4.95952E-09
 global y velocity..............   4.95952E-09
 global z velocity..............   0.00000E+00
 time per zone cycle.(nanosec)..          1764


 dt of cycle      32 is controlled by solid             89 of part         1

 time...........................   1.29767E+01
 time step......................   4.17790E-01
 kinetic energy.................   1.56495E-01
 internal energy................   2.59557E+00
 spring and damper energy.......   1.00000E-20
 hourglass energy ..............   3.81716E-08
 system damping energy..........   0.00000E+00
 sliding interface energy.......   0.00000E+00
 external work..................   0.00000E+00
 eroded kinetic energy..........   0.00000E+00
 eroded internal energy.........   0.00000E+00
 eroded hourglass energy........   0.00000E+00
 total energy...................   2.75206E+00
 total energy / initial energy..   1.00002E+00
 energy ratio w/o eroded energy.   1.00002E+00
 global x velocity..............   5.36746E-09
 global y velocity..............   5.36746E-09
 global z velocity..............   0.00000E+00
 time per zone cycle.(nanosec)..          1809


 dt of cycle      33 is controlled by solid             97 of part         1

 time...........................   1.33945E+01
 time step......................   4.17912E-01
 kinetic energy.................   1.68758E-01
 internal energy................   2.58323E+00
 spring and damper energy.......   1.00000E-20
 hourglass energy ..............   4.00917E-08
 system damping energy..........   0.00000E+00
 sliding interface energy.......   0.00000E+00
 external work..................   0.00000E+00
 eroded kinetic energy..........   0.00000E+00
 eroded internal energy.........   0.00000E+00
 eroded hourglass energy........   0.00000E+00
 total energy...................   2.75198E+00
 total energy / initial energy..   9.99994E-01
 energy ratio w/o eroded energy.   9.99994E-01
 global x velocity..............   5.79545E-09
 global y velocity..............   5.79546E-09
 global z velocity..............   0.00000E+00
 time per zone cycle.(nanosec)..          1864


 dt of cycle      34 is controlled by solid            105 of part         1

 time...........................   1.38124E+01
 time step......................   4.18127E-01
 kinetic energy.................   1.81549E-01
 internal energy................   2.57037E+00
 spring and damper energy.......   1.00000E-20
 hourglass energy ..............   4.18378E-08
 system damping energy..........   0.00000E+00
 sliding interface energy.......   0.00000E+00
 external work..................   0.00000E+00
 eroded kinetic energy..........   0.00000E+00
 eroded internal energy.........   0.00000E+00
 eroded hourglass energy........   0.00000E+00
 total energy...................   2.75192E+00
 total energy / initial energy..   9.99970E-01
 energy ratio w/o eroded energy.   9.99970E-01
 global x velocity..............   6.24234E-09
 global y velocity..............   6.24234E-09
 global z velocity..............   0.00000E+00
 time per zone cycle.(nanosec)..          1637


 dt of cycle      35 is controlled by solid           1057 of part         1

 time...........................   1.42306E+01
 time step......................   4.18013E-01
 kinetic energy.................   1.94776E-01
 internal energy................   2.55703E+00
 spring and damper energy.......   1.00000E-20
 hourglass energy ..............   4.35269E-08
 system damping energy..........   0.00000E+00
 sliding interface energy.......   0.00000E+00
 external work..................   0.00000E+00
 eroded kinetic energy..........   0.00000E+00
 eroded internal energy.........   0.00000E+00
 eroded hourglass energy........   0.00000E+00
 total energy...................   2.75181E+00
 total energy / initial energy..   9.99930E-01
 energy ratio w/o eroded energy.   9.99930E-01
 global x velocity..............   6.70701E-09
 global y velocity..............   6.70700E-09
 global z velocity..............   0.00000E+00
 time per zone cycle.(nanosec)..          1998


 dt of cycle      36 is controlled by solid           1057 of part         1

 time...........................   1.46486E+01
 time step......................   4.17597E-01
 kinetic energy.................   2.08116E-01
 internal energy................   2.54359E+00
 spring and damper energy.......   1.00000E-20
 hourglass energy ..............   4.52107E-08
 system damping energy..........   0.00000E+00
 sliding interface energy.......   0.00000E+00
 external work..................   0.00000E+00
 eroded kinetic energy..........   0.00000E+00
 eroded internal energy.........   0.00000E+00
 eroded hourglass energy........   0.00000E+00
 total energy...................   2.75171E+00
 total energy / initial energy..   9.99894E-01
 energy ratio w/o eroded energy.   9.99894E-01
 global x velocity..............   7.18812E-09
 global y velocity..............   7.18813E-09
 global z velocity..............   0.00000E+00
 time per zone cycle.(nanosec)..          1493


 dt of cycle      37 is controlled by solid           1090 of part         1

 time...........................   1.50662E+01
 time step......................   4.18033E-01
 kinetic energy.................   2.21510E-01
 internal energy................   2.53009E+00
 spring and damper energy.......   1.00000E-20
 hourglass energy ..............   4.69420E-08
 system damping energy..........   0.00000E+00
 sliding interface energy.......   0.00000E+00
 external work..................   0.00000E+00
 eroded kinetic energy..........   0.00000E+00
 eroded internal energy.........   0.00000E+00
 eroded hourglass energy........   0.00000E+00
 total energy...................   2.75160E+00
 total energy / initial energy..   9.99855E-01
 energy ratio w/o eroded energy.   9.99855E-01
 global x velocity..............   7.68462E-09
 global y velocity..............   7.68462E-09
 global z velocity..............   0.00000E+00
 time per zone cycle.(nanosec)..          1679


 dt of cycle      38 is controlled by solid            121 of part         1

 time...........................   1.54842E+01
 time step......................   4.18249E-01
 kinetic energy.................   2.34969E-01
 internal energy................   2.51653E+00
 spring and damper energy.......   1.00000E-20
 hourglass energy ..............   4.85383E-08
 system damping energy..........   0.00000E+00
 sliding interface energy.......   0.00000E+00
 external work..................   0.00000E+00
 eroded kinetic energy..........   0.00000E+00
 eroded internal energy.........   0.00000E+00
 eroded hourglass energy........   0.00000E+00
 total energy...................   2.75150E+00
 total energy / initial energy..   9.99818E-01
 energy ratio w/o eroded energy.   9.99818E-01
 global x velocity..............   8.19579E-09
 global y velocity..............   8.19579E-09
 global z velocity..............   0.00000E+00
 time per zone cycle.(nanosec)..          1460


 dt of cycle      39 is controlled by solid           1123 of part         1

 time...........................   1.59024E+01
 time step......................   4.18281E-01
 kinetic energy.................   2.48668E-01
 internal energy................   2.50271E+00
 spring and damper energy.......   1.00000E-20
 hourglass energy ..............   4.97961E-08
 system damping energy..........   0.00000E+00
 sliding interface energy.......   0.00000E+00
 external work..................   0.00000E+00
 eroded kinetic energy..........   0.00000E+00
 eroded internal energy.........   0.00000E+00
 eroded hourglass energy........   0.00000E+00
 total energy...................   2.75138E+00
 total energy / initial energy..   9.99774E-01
 energy ratio w/o eroded energy.   9.99774E-01
 global x velocity..............   8.72067E-09
 global y velocity..............   8.72066E-09
 global z velocity..............   0.00000E+00
 time per zone cycle.(nanosec)..          1422


 dt of cycle      40 is controlled by solid            137 of part         1

 time...........................   1.63207E+01
 time step......................   4.18385E-01
 kinetic energy.................   2.62657E-01
 internal energy................   2.48861E+00
 spring and damper energy.......   1.00000E-20
 hourglass energy ..............   5.08294E-08
 system damping energy..........   0.00000E+00
 sliding interface energy.......   0.00000E+00
 external work..................   0.00000E+00
 eroded kinetic energy..........   0.00000E+00
 eroded internal energy.........   0.00000E+00
 eroded hourglass energy........   0.00000E+00
 total energy...................   2.75126E+00
 total energy / initial energy..   9.99732E-01
 energy ratio w/o eroded energy.   9.99732E-01
 global x velocity..............   9.25811E-09
 global y velocity..............   9.25811E-09
 global z velocity..............   0.00000E+00
 time per zone cycle.(nanosec)..          1649


 dt of cycle      41 is controlled by solid            137 of part         1

 time...........................   1.67391E+01
 time step......................   4.18378E-01
 kinetic energy.................   2.76925E-01
 internal energy................   2.47422E+00
 spring and damper energy.......   1.00000E-20
 hourglass energy ..............   5.16859E-08
 system damping energy..........   0.00000E+00
 sliding interface energy.......   0.00000E+00
 external work..................   0.00000E+00
 eroded kinetic energy..........   0.00000E+00
 eroded internal energy.........   0.00000E+00
 eroded hourglass energy........   0.00000E+00
 total energy...................   2.75114E+00
 total energy / initial energy..   9.99688E-01
 energy ratio w/o eroded energy.   9.99688E-01
 global x velocity..............   9.80716E-09
 global y velocity..............   9.80716E-09
 global z velocity..............   0.00000E+00
 time per zone cycle.(nanosec)..          1408


 dt of cycle      42 is controlled by solid            145 of part         1

 time...........................   1.71575E+01
 time step......................   4.18396E-01
 kinetic energy.................   2.91464E-01
 internal energy................   2.45955E+00
 spring and damper energy.......   1.00000E-20
 hourglass energy ..............   5.24192E-08
 system damping energy..........   0.00000E+00
 sliding interface energy.......   0.00000E+00
 external work..................   0.00000E+00
 eroded kinetic energy..........   0.00000E+00
 eroded internal energy.........   0.00000E+00
 eroded hourglass energy........   0.00000E+00
 total energy...................   2.75101E+00
 total energy / initial energy..   9.99642E-01
 energy ratio w/o eroded energy.   9.99642E-01
 global x velocity..............   1.03670E-08
 global y velocity..............   1.03670E-08
 global z velocity..............   0.00000E+00
 time per zone cycle.(nanosec)..          1658


 dt of cycle      43 is controlled by solid            153 of part         1

 time...........................   1.75759E+01
 time step......................   4.18464E-01
 kinetic energy.................   3.06224E-01
 internal energy................   2.44466E+00
 spring and damper energy.......   1.00000E-20
 hourglass energy ..............   5.30968E-08
 system damping energy..........   0.00000E+00
 sliding interface energy.......   0.00000E+00
 external work..................   0.00000E+00
 eroded kinetic energy..........   0.00000E+00
 eroded internal energy.........   0.00000E+00
 eroded hourglass energy........   0.00000E+00
 total energy...................   2.75088E+00
 total energy / initial energy..   9.99594E-01
 energy ratio w/o eroded energy.   9.99594E-01
 global x velocity..............   1.09371E-08
 global y velocity..............   1.09371E-08
 global z velocity..............   0.00000E+00
 time per zone cycle.(nanosec)..          1436


 dt of cycle      44 is controlled by solid            153 of part         1

 time...........................   1.79943E+01
 time step......................   4.18471E-01
 kinetic energy.................   3.21123E-01
 internal energy................   2.42962E+00
 spring and damper energy.......   1.00000E-20
 hourglass energy ..............   5.37954E-08
 system damping energy..........   0.00000E+00
 sliding interface energy.......   0.00000E+00
 external work..................   0.00000E+00
 eroded kinetic energy..........   0.00000E+00
 eroded internal energy.........   0.00000E+00
 eroded hourglass energy........   0.00000E+00
 total energy...................   2.75074E+00
 total energy / initial energy..   9.99544E-01
 energy ratio w/o eroded energy.   9.99544E-01
 global x velocity..............   1.15170E-08
 global y velocity..............   1.15170E-08
 global z velocity..............   0.00000E+00
 time per zone cycle.(nanosec)..          1451


 dt of cycle      45 is controlled by solid            161 of part         1

 time...........................   1.84128E+01
 time step......................   4.18476E-01
 kinetic energy.................   3.36063E-01
 internal energy................   2.41454E+00
 spring and damper energy.......   1.00000E-20
 hourglass energy ..............   5.46006E-08
 system damping energy..........   0.00000E+00
 sliding interface energy.......   0.00000E+00
 external work..................   0.00000E+00
 eroded kinetic energy..........   0.00000E+00
 eroded internal energy.........   0.00000E+00
 eroded hourglass energy........   0.00000E+00
 total energy...................   2.75060E+00
 total energy / initial energy..   9.99492E-01
 energy ratio w/o eroded energy.   9.99492E-01
 global x velocity..............   1.21062E-08
 global y velocity..............   1.21062E-08
 global z velocity..............   0.00000E+00
 time per zone cycle.(nanosec)..          1597


 dt of cycle      46 is controlled by solid            169 of part         1

 time...........................   1.88313E+01
 time step......................   4.18524E-01
 kinetic energy.................   3.50937E-01
 internal energy................   2.39952E+00
 spring and damper energy.......   1.00000E-20
 hourglass energy ..............   5.55856E-08
 system damping energy..........   0.00000E+00
 sliding interface energy.......   0.00000E+00
 external work..................   0.00000E+00
 eroded kinetic energy..........   0.00000E+00
 eroded internal energy.........   0.00000E+00
 eroded hourglass energy........   0.00000E+00
 total energy...................   2.75045E+00
 total energy / initial energy..   9.99439E-01
 energy ratio w/o eroded energy.   9.99439E-01
 global x velocity..............   1.27045E-08
 global y velocity..............   1.27045E-08
 global z velocity..............   0.00000E+00
 time per zone cycle.(nanosec)..          1440


 dt of cycle      47 is controlled by solid            814 of part         1

 time...........................   1.92498E+01
 time step......................   4.18539E-01
 kinetic energy.................   3.65642E-01
 internal energy................   2.38466E+00
 spring and damper energy.......   1.00000E-20
 hourglass energy ..............   5.67860E-08
 system damping energy..........   0.00000E+00
 sliding interface energy.......   0.00000E+00
 external work..................   0.00000E+00
 eroded kinetic energy..........   0.00000E+00
 eroded internal energy.........   0.00000E+00
 eroded hourglass energy........   0.00000E+00
 total energy...................   2.75030E+00
 total energy / initial energy..   9.99383E-01
 energy ratio w/o eroded energy.   9.99383E-01
 global x velocity..............   1.33120E-08
 global y velocity..............   1.33120E-08
 global z velocity..............   0.00000E+00
 time per zone cycle.(nanosec)..          1557


 dt of cycle      48 is controlled by solid            177 of part         1

 time...........................   1.96684E+01
 time step......................   4.18537E-01
 kinetic energy.................   3.80075E-01
 internal energy................   2.37007E+00
 spring and damper energy.......   1.00000E-20
 hourglass energy ..............   5.81791E-08
 system damping energy..........   0.00000E+00
 sliding interface energy.......   0.00000E+00
 external work..................   0.00000E+00
 eroded kinetic energy..........   0.00000E+00
 eroded internal energy.........   0.00000E+00
 eroded hourglass energy........   0.00000E+00
 total energy...................   2.75014E+00
 total energy / initial energy..   9.99325E-01
 energy ratio w/o eroded energy.   9.99325E-01
 global x velocity..............   1.39289E-08
 global y velocity..............   1.39289E-08
 global z velocity..............   0.00000E+00
 time per zone cycle.(nanosec)..          1458


 dt of cycle      49 is controlled by solid            185 of part         1

 time...........................   2.00869E+01
 time step......................   4.18570E-01
 kinetic energy.................   3.94148E-01
 internal energy................   2.35583E+00
 spring and damper energy.......   1.00000E-20
 hourglass energy ..............   5.97009E-08
 system damping energy..........   0.00000E+00
 sliding interface energy.......   0.00000E+00
 external work..................   0.00000E+00
 eroded kinetic energy..........   0.00000E+00
 eroded internal energy.........   0.00000E+00
 eroded hourglass energy........   0.00000E+00
 total energy...................   2.74998E+00
 total energy / initial energy..   9.99267E-01
 energy ratio w/o eroded energy.   9.99267E-01
 global x velocity..............   1.45559E-08
 global y velocity..............   1.45559E-08
 global z velocity..............   0.00000E+00
 time per zone cycle.(nanosec)..          1614


 dt of cycle      50 is controlled by solid            185 of part         1

 time...........................   2.05055E+01
 time step......................   4.18591E-01
 kinetic energy.................   4.07795E-01
 internal energy................   2.34203E+00
 spring and damper energy.......   1.00000E-20
 hourglass energy ..............   6.12771E-08
 system damping energy..........   0.00000E+00
 sliding interface energy.......   0.00000E+00
 external work..................   0.00000E+00
 eroded kinetic energy..........   0.00000E+00
 eroded internal energy.........   0.00000E+00
 eroded hourglass energy........   0.00000E+00
 total energy...................   2.74982E+00
 total energy / initial energy..   9.99208E-01
 energy ratio w/o eroded energy.   9.99208E-01
 global x velocity..............   1.51937E-08
 global y velocity..............   1.51936E-08
 global z velocity..............   0.00000E+00
 time per zone cycle.(nanosec)..          1541


 dt of cycle      51 is controlled by solid            193 of part         1

 time...........................   2.09241E+01
 time step......................   4.18583E-01
 kinetic energy.................   4.20968E-01
 internal energy................   2.32869E+00
 spring and damper energy.......   1.00000E-20
 hourglass energy ..............   6.28385E-08
 system damping energy..........   0.00000E+00
 sliding interface energy.......   0.00000E+00
 external work..................   0.00000E+00
 eroded kinetic energy..........   0.00000E+00
 eroded internal energy.........   0.00000E+00
 eroded hourglass energy........   0.00000E+00
 total energy...................   2.74966E+00
 total energy / initial energy..   9.99150E-01
 energy ratio w/o eroded energy.   9.99150E-01
 global x velocity..............   1.58433E-08
 global y velocity..............   1.58433E-08
 global z velocity..............   0.00000E+00
 time per zone cycle.(nanosec)..          1566


 dt of cycle      52 is controlled by solid            818 of part         1

 time...........................   2.13426E+01
 time step......................   4.18607E-01
 kinetic energy.................   4.33640E-01
 internal energy................   2.31586E+00
 spring and damper energy.......   1.00000E-20
 hourglass energy ..............   6.43348E-08
 system damping energy..........   0.00000E+00
 sliding interface energy.......   0.00000E+00
 external work..................   0.00000E+00
 eroded kinetic energy..........   0.00000E+00
 eroded internal energy.........   0.00000E+00
 eroded hourglass energy........   0.00000E+00
 total energy...................   2.74950E+00
 total energy / initial energy..   9.99093E-01
 energy ratio w/o eroded energy.   9.99093E-01
 global x velocity..............   1.65055E-08
 global y velocity..............   1.65055E-08
 global z velocity..............   0.00000E+00
 time per zone cycle.(nanosec)..          1961


 dt of cycle      53 is controlled by solid            201 of part         1

 time...........................   2.17612E+01
 time step......................   4.18632E-01
 kinetic energy.................   4.45804E-01
 internal energy................   2.30354E+00
 spring and damper energy.......   1.00000E-20
 hourglass energy ..............   6.57379E-08
 system damping energy..........   0.00000E+00
 sliding interface energy.......   0.00000E+00
 external work..................   0.00000E+00
 eroded kinetic energy..........   0.00000E+00
 eroded internal energy.........   0.00000E+00
 eroded hourglass energy........   0.00000E+00
 total energy...................   2.74935E+00
 total energy / initial energy..   9.99036E-01
 energy ratio w/o eroded energy.   9.99036E-01
 global x velocity..............   1.71806E-08
 global y velocity..............   1.71807E-08
 global z velocity..............   0.00000E+00
 time per zone cycle.(nanosec)..          1764


 dt of cycle      54 is controlled by solid            819 of part         1

 time...........................   2.21799E+01
 time step......................   4.18620E-01
 kinetic energy.................   4.57473E-01
 internal energy................   2.29172E+00
 spring and damper energy.......   1.00000E-20
 hourglass energy ..............   6.70387E-08
 system damping energy..........   0.00000E+00
 sliding interface energy.......   0.00000E+00
 external work..................   0.00000E+00
 eroded kinetic energy..........   0.00000E+00
 eroded internal energy.........   0.00000E+00
 eroded hourglass energy........   0.00000E+00
 total energy...................   2.74920E+00
 total energy / initial energy..   9.98982E-01
 energy ratio w/o eroded energy.   9.98982E-01
 global x velocity..............   1.78688E-08
 global y velocity..............   1.78689E-08
 global z velocity..............   0.00000E+00
 time per zone cycle.(nanosec)..          1817


 dt of cycle      55 is controlled by solid            217 of part         1

 time...........................   2.25985E+01
 time step......................   4.18637E-01
 kinetic energy.................   4.68675E-01
 internal energy................   2.28038E+00
 spring and damper energy.......   1.00000E-20
 hourglass energy ..............   6.82364E-08
 system damping energy..........   0.00000E+00
 sliding interface energy.......   0.00000E+00
 external work..................   0.00000E+00
 eroded kinetic energy..........   0.00000E+00
 eroded internal energy.........   0.00000E+00
 eroded hourglass energy........   0.00000E+00
 total energy...................   2.74905E+00
 total energy / initial energy..   9.98929E-01
 energy ratio w/o eroded energy.   9.98929E-01
 global x velocity..............   1.85700E-08
 global y velocity..............   1.85700E-08
 global z velocity..............   0.00000E+00
 time per zone cycle.(nanosec)..          1600


 dt of cycle      56 is controlled by solid            820 of part         1

 time...........................   2.30171E+01
 time step......................   4.18663E-01
 kinetic energy.................   4.79455E-01
 internal energy................   2.26945E+00
 spring and damper energy.......   1.00000E-20
 hourglass energy ..............   6.93371E-08
 system damping energy..........   0.00000E+00
 sliding interface energy.......   0.00000E+00
 external work..................   0.00000E+00
 eroded kinetic energy..........   0.00000E+00
 eroded internal energy.........   0.00000E+00
 eroded hourglass energy........   0.00000E+00
 total energy...................   2.74891E+00
 total energy / initial energy..   9.98876E-01
 energy ratio w/o eroded energy.   9.98876E-01
 global x velocity..............   1.92834E-08
 global y velocity..............   1.92834E-08
 global z velocity..............   0.00000E+00
 time per zone cycle.(nanosec)..          2079


 dt of cycle      57 is controlled by solid            225 of part         1

 time...........................   2.34358E+01
 time step......................   4.18650E-01
 kinetic energy.................   4.89866E-01
 internal energy................   2.25890E+00
 spring and damper energy.......   1.00000E-20
 hourglass energy ..............   7.03542E-08
 system damping energy..........   0.00000E+00
 sliding interface energy.......   0.00000E+00
 external work..................   0.00000E+00
 eroded kinetic energy..........   0.00000E+00
 eroded internal energy.........   0.00000E+00
 eroded hourglass energy........   0.00000E+00
 total energy...................   2.74876E+00
 total energy / initial energy..   9.98825E-01
 energy ratio w/o eroded energy.   9.98825E-01
 global x velocity..............   2.00083E-08
 global y velocity..............   2.00083E-08
 global z velocity..............   0.00000E+00
 time per zone cycle.(nanosec)..          1573


 dt of cycle      58 is controlled by solid            233 of part         1

 time...........................   2.38544E+01
 time step......................   4.18661E-01
 kinetic energy.................   4.99968E-01
 internal energy................   2.24866E+00
 spring and damper energy.......   1.00000E-20
 hourglass energy ..............   7.13061E-08
 system damping energy..........   0.00000E+00
 sliding interface energy.......   0.00000E+00
 external work..................   0.00000E+00
 eroded kinetic energy..........   0.00000E+00
 eroded internal energy.........   0.00000E+00
 eroded hourglass energy........   0.00000E+00
 total energy...................   2.74862E+00
 total energy / initial energy..   9.98773E-01
 energy ratio w/o eroded energy.   9.98773E-01
 global x velocity..............   2.07439E-08
 global y velocity..............   2.07439E-08
 global z velocity..............   0.00000E+00
 time per zone cycle.(nanosec)..          1796


 dt of cycle      59 is controlled by solid            241 of part         1

 time...........................   2.42731E+01
 time step......................   4.18682E-01
 kinetic energy.................   5.09833E-01
 internal energy................   2.23865E+00
 spring and damper energy.......   1.00000E-20
 hourglass energy ..............   7.22106E-08
 system damping energy..........   0.00000E+00
 sliding interface energy.......   0.00000E+00
 external work..................   0.00000E+00
 eroded kinetic energy..........   0.00000E+00
 eroded internal energy.........   0.00000E+00
 eroded hourglass energy........   0.00000E+00
 total energy...................   2.74848E+00
 total energy / initial energy..   9.98723E-01
 energy ratio w/o eroded energy.   9.98723E-01
 global x velocity..............   2.14894E-08
 global y velocity..............   2.14894E-08
 global z velocity..............   0.00000E+00
 time per zone cycle.(nanosec)..          2319


 dt of cycle      60 is controlled by solid            241 of part         1

 time...........................   2.46918E+01
 time step......................   4.18673E-01
 kinetic energy.................   5.19530E-01
 internal energy................   2.22882E+00
 spring and damper energy.......   1.00000E-20
 hourglass energy ..............   7.30637E-08
 system damping energy..........   0.00000E+00
 sliding interface energy.......   0.00000E+00
 external work..................   0.00000E+00
 eroded kinetic energy..........   0.00000E+00
 eroded internal energy.........   0.00000E+00
 eroded hourglass energy........   0.00000E+00
 total energy...................   2.74834E+00
 total energy / initial energy..   9.98672E-01
 energy ratio w/o eroded energy.   9.98672E-01
 global x velocity..............   2.22441E-08
 global y velocity..............   2.22441E-08
 global z velocity..............   0.00000E+00
 time per zone cycle.(nanosec)..          1958


 dt of cycle      61 is controlled by solid            249 of part         1

 time...........................   2.51105E+01
 time step......................   4.18680E-01
 kinetic energy.................   5.29118E-01
 internal energy................   2.21909E+00
 spring and damper energy.......   1.00000E-20
 hourglass energy ..............   7.38491E-08
 system damping energy..........   0.00000E+00
 sliding interface energy.......   0.00000E+00
 external work..................   0.00000E+00
 eroded kinetic energy..........   0.00000E+00
 eroded internal energy.........   0.00000E+00
 eroded hourglass energy........   0.00000E+00
 total energy...................   2.74820E+00
 total energy / initial energy..   9.98621E-01
 energy ratio w/o eroded energy.   9.98621E-01
 global x velocity..............   2.30071E-08
 global y velocity..............   2.30071E-08
 global z velocity..............   0.00000E+00
 time per zone cycle.(nanosec)..          1910


 dt of cycle      62 is controlled by solid            257 of part         1

 time...........................   2.55291E+01
 time step......................   4.18697E-01
 kinetic energy.................   5.38643E-01
 internal energy................   2.20941E+00
 spring and damper energy.......   1.00000E-20
 hourglass energy ..............   7.45724E-08
 system damping energy..........   0.00000E+00
 sliding interface energy.......   0.00000E+00
 external work..................   0.00000E+00
 eroded kinetic energy..........   0.00000E+00
 eroded internal energy.........   0.00000E+00
 eroded hourglass energy........   0.00000E+00
 total energy...................   2.74805E+00
 total energy / initial energy..   9.98567E-01
 energy ratio w/o eroded energy.   9.98567E-01
 global x velocity..............   2.37776E-08
 global y velocity..............   2.37776E-08
 global z velocity..............   0.00000E+00
 time per zone cycle.(nanosec)..          1533


 dt of cycle      63 is controlled by solid            257 of part         1

 time...........................   2.59478E+01
 time step......................   4.18693E-01
 kinetic energy.................   5.48133E-01
 internal energy................   2.19977E+00
 spring and damper energy.......   1.00000E-20
 hourglass energy ..............   7.52573E-08
 system damping energy..........   0.00000E+00
 sliding interface energy.......   0.00000E+00
 external work..................   0.00000E+00
 eroded kinetic energy..........   0.00000E+00
 eroded internal energy.........   0.00000E+00
 eroded hourglass energy........   0.00000E+00
 total energy...................   2.74790E+00
 total energy / initial energy..   9.98510E-01
 energy ratio w/o eroded energy.   9.98510E-01
 global x velocity..............   2.45550E-08
 global y velocity..............   2.45550E-08
 global z velocity..............   0.00000E+00
 time per zone cycle.(nanosec)..          1453


 dt of cycle      64 is controlled by solid            826 of part         1

 time...........................   2.63665E+01
 time step......................   4.18697E-01
 kinetic energy.................   5.57601E-01
 internal energy................   2.19013E+00
 spring and damper energy.......   1.00000E-20
 hourglass energy ..............   7.59433E-08
 system damping energy..........   0.00000E+00
 sliding interface energy.......   0.00000E+00
 external work..................   0.00000E+00
 eroded kinetic energy..........   0.00000E+00
 eroded internal energy.........   0.00000E+00
 eroded hourglass energy........   0.00000E+00
 total energy...................   2.74773E+00
 total energy / initial energy..   9.98449E-01
 energy ratio w/o eroded energy.   9.98449E-01
 global x velocity..............   2.53383E-08
 global y velocity..............   2.53383E-08
 global z velocity..............   0.00000E+00
 time per zone cycle.(nanosec)..          1612


 dt of cycle      65 is controlled by solid            273 of part         1

 time...........................   2.67852E+01
 time step......................   4.18709E-01
 kinetic energy.................   5.67037E-01
 internal energy................   2.18051E+00
 spring and damper energy.......   1.00000E-20
 hourglass energy ..............   7.66766E-08
 system damping energy..........   0.00000E+00
 sliding interface energy.......   0.00000E+00
 external work..................   0.00000E+00
 eroded kinetic energy..........   0.00000E+00
 eroded internal energy.........   0.00000E+00
 eroded hourglass energy........   0.00000E+00
 total energy...................   2.74754E+00
 total energy / initial energy..   9.98381E-01
 energy ratio w/o eroded energy.   9.98381E-01
 global x velocity..............   2.61270E-08
 global y velocity..............   2.61271E-08
 global z velocity..............   0.00000E+00
 time per zone cycle.(nanosec)..          1464


 dt of cycle      66 is controlled by solid            273 of part         1

 time...........................   2.72039E+01
 time step......................   4.18708E-01
 kinetic energy.................   5.76420E-01
 internal energy................   2.17091E+00
 spring and damper energy.......   1.00000E-20
 hourglass energy ..............   7.75047E-08
 system damping energy..........   0.00000E+00
 sliding interface energy.......   0.00000E+00
 external work..................   0.00000E+00
 eroded kinetic energy..........   0.00000E+00
 eroded internal energy.........   0.00000E+00
 eroded hourglass energy........   0.00000E+00
 total energy...................   2.74733E+00
 total energy / initial energy..   9.98303E-01
 energy ratio w/o eroded energy.   9.98303E-01
 global x velocity..............   2.69205E-08
 global y velocity..............   2.69205E-08
 global z velocity..............   0.00000E+00
 time per zone cycle.(nanosec)..          1787


 dt of cycle      67 is controlled by solid            828 of part         1

 time...........................   2.76226E+01
 time step......................   4.18710E-01
 kinetic energy.................   5.85681E-01
 internal energy................   2.16141E+00
 spring and damper energy.......   1.00000E-20
 hourglass energy ..............   7.84702E-08
 system damping energy..........   0.00000E+00
 sliding interface energy.......   0.00000E+00
 external work..................   0.00000E+00
 eroded kinetic energy..........   0.00000E+00
 eroded internal energy.........   0.00000E+00
 eroded hourglass energy........   0.00000E+00
 total energy...................   2.74710E+00
 total energy / initial energy..   9.98218E-01
 energy ratio w/o eroded energy.   9.98218E-01
 global x velocity..............   2.77197E-08
 global y velocity..............   2.77198E-08
 global z velocity..............   0.00000E+00
 time per zone cycle.(nanosec)..          1478


 dt of cycle      68 is controlled by solid            829 of part         1

 time...........................   2.80414E+01
 time step......................   4.18720E-01
 kinetic energy.................   5.94763E-01
 internal energy................   2.15209E+00
 spring and damper energy.......   1.00000E-20
 hourglass energy ..............   7.96201E-08
 system damping energy..........   0.00000E+00
 sliding interface energy.......   0.00000E+00
 external work..................   0.00000E+00
 eroded kinetic energy..........   0.00000E+00
 eroded internal energy.........   0.00000E+00
 eroded hourglass energy........   0.00000E+00
 total energy...................   2.74685E+00
 total energy / initial energy..   9.98130E-01
 energy ratio w/o eroded energy.   9.98130E-01
 global x velocity..............   2.85251E-08
 global y velocity..............   2.85253E-08
 global z velocity..............   0.00000E+00
 time per zone cycle.(nanosec)..          1565


 dt of cycle      69 is controlled by solid            829 of part         1

 time...........................   2.84601E+01
 time step......................   4.18721E-01
 kinetic energy.................   6.03654E-01
 internal energy................   2.14294E+00
 spring and damper energy.......   1.00000E-20
 hourglass energy ..............   8.10249E-08
 system damping energy..........   0.00000E+00
 sliding interface energy.......   0.00000E+00
 external work..................   0.00000E+00
 eroded kinetic energy..........   0.00000E+00
 eroded internal energy.........   0.00000E+00
 eroded hourglass energy........   0.00000E+00
 total energy...................   2.74660E+00
 total energy / initial energy..   9.98037E-01
 energy ratio w/o eroded energy.   9.98037E-01
 global x velocity..............   2.93351E-08
 global y velocity..............   2.93358E-08
 global z velocity..............   0.00000E+00
 time per zone cycle.(nanosec)..          1435


 dt of cycle      70 is controlled by solid            830 of part         1

 time...........................   2.88788E+01
 time step......................   4.18721E-01
 kinetic energy.................   6.12318E-01
 internal energy................   2.13402E+00
 spring and damper energy.......   1.00000E-20
 hourglass energy ..............   8.27211E-08
 system damping energy..........   0.00000E+00
 sliding interface energy.......   0.00000E+00
 external work..................   0.00000E+00
 eroded kinetic energy..........   0.00000E+00
 eroded internal energy.........   0.00000E+00
 eroded hourglass energy........   0.00000E+00
 total energy...................   2.74634E+00
 total energy / initial energy..   9.97943E-01
 energy ratio w/o eroded energy.   9.97943E-01
 global x velocity..............   3.01477E-08
 global y velocity..............   3.01496E-08
 global z velocity..............   0.00000E+00
 time per zone cycle.(nanosec)..          1423


 dt of cycle      71 is controlled by solid            831 of part         1

 time...........................   2.92975E+01
 time step......................   4.18725E-01
 kinetic energy.................   6.20735E-01
 internal energy................   2.12536E+00
 spring and damper energy.......   1.00000E-20
 hourglass energy ..............   8.47281E-08
 system damping energy..........   0.00000E+00
 sliding interface energy.......   0.00000E+00
 external work..................   0.00000E+00
 eroded kinetic energy..........   0.00000E+00
 eroded internal energy.........   0.00000E+00
 eroded hourglass energy........   0.00000E+00
 total energy...................   2.74609E+00
 total energy / initial energy..   9.97853E-01
 energy ratio w/o eroded energy.   9.97853E-01
 global x velocity..............   3.09611E-08
 global y velocity..............   3.09656E-08
 global z velocity..............   0.00000E+00
 time per zone cycle.(nanosec)..          1541


 dt of cycle      72 is controlled by solid            832 of part         1

 time...........................   2.97162E+01
 time step......................   4.18716E-01
 kinetic energy.................   6.28907E-01
 internal energy................   2.11696E+00
 spring and damper energy.......   1.00000E-20
 hourglass energy ..............   8.70035E-08
 system damping energy..........   0.00000E+00
 sliding interface energy.......   0.00000E+00
 external work..................   0.00000E+00
 eroded kinetic energy..........   0.00000E+00
 eroded internal energy.........   0.00000E+00
 eroded hourglass energy........   0.00000E+00
 total energy...................   2.74586E+00
 total energy / initial energy..   9.97770E-01
 energy ratio w/o eroded energy.   9.97770E-01
 global x velocity..............   3.17731E-08
 global y velocity..............   3.17833E-08
 global z velocity..............   0.00000E+00
 time per zone cycle.(nanosec)..          1425


 dt of cycle      73 is controlled by solid            832 of part         1

 time...........................   3.01350E+01
 time step......................   4.18694E-01
 kinetic energy.................   6.36843E-01
 internal energy................   2.10881E+00
 spring and damper energy.......   1.00000E-20
 hourglass energy ..............   8.94800E-08
 system damping energy..........   0.00000E+00
 sliding interface energy.......   0.00000E+00
 external work..................   0.00000E+00
 eroded kinetic energy..........   0.00000E+00
 eroded internal energy.........   0.00000E+00
 eroded hourglass energy........   0.00000E+00
 total energy...................   2.74566E+00
 total energy / initial energy..   9.97695E-01
 energy ratio w/o eroded energy.   9.97695E-01
 global x velocity..............   3.25810E-08
 global y velocity..............   3.26027E-08
 global z velocity..............   0.00000E+00
 time per zone cycle.(nanosec)..          1523


 dt of cycle      74 is controlled by solid            832 of part         1

 time...........................   3.05537E+01
 time step......................   4.18704E-01
 kinetic energy.................   6.44559E-01
 internal energy................   2.10091E+00
 spring and damper energy.......   1.00000E-20
 hourglass energy ..............   9.21140E-08
 system damping energy..........   0.00000E+00
 sliding interface energy.......   0.00000E+00
 external work..................   0.00000E+00
 eroded kinetic energy..........   0.00000E+00
 eroded internal energy.........   0.00000E+00
 eroded hourglass energy........   0.00000E+00
 total energy...................   2.74547E+00
 total energy / initial energy..   9.97628E-01
 energy ratio w/o eroded energy.   9.97628E-01
 global x velocity..............   3.33800E-08
 global y velocity..............   3.34238E-08
 global z velocity..............   0.00000E+00
 time per zone cycle.(nanosec)..          1426


 dt of cycle      75 is controlled by solid            321 of part         1

 time...........................   3.09724E+01
 time step......................   4.18741E-01
 kinetic energy.................   6.52066E-01
 internal energy................   2.09323E+00
 spring and damper energy.......   1.00000E-20
 hourglass energy ..............   9.49601E-08
 system damping energy..........   0.00000E+00
 sliding interface energy.......   0.00000E+00
 external work..................   0.00000E+00
 eroded kinetic energy..........   0.00000E+00
 eroded internal energy.........   0.00000E+00
 eroded hourglass energy........   0.00000E+00
 total energy...................   2.74529E+00
 total energy / initial energy..   9.97564E-01
 energy ratio w/o eroded energy.   9.97564E-01
 global x velocity..............   3.41630E-08
 global y velocity..............   3.42462E-08
 global z velocity..............   0.00000E+00
 time per zone cycle.(nanosec)..          1427


 dt of cycle      76 is controlled by solid            329 of part         1

 time...........................   3.13911E+01
 time step......................   4.18739E-01
 kinetic energy.................   6.59274E-01
 internal energy................   2.08586E+00
 spring and damper energy.......   1.00000E-20
 hourglass energy ..............   9.80185E-08
 system damping energy..........   0.00000E+00
 sliding interface energy.......   0.00000E+00
 external work..................   0.00000E+00
 eroded kinetic energy..........   0.00000E+00
 eroded internal energy.........   0.00000E+00
 eroded hourglass energy........   0.00000E+00
 total energy...................   2.74513E+00
 total energy / initial energy..   9.97504E-01
 energy ratio w/o eroded energy.   9.97504E-01
 global x velocity..............   3.49203E-08
 global y velocity..............   3.50697E-08
 global z velocity..............   0.00000E+00
 time per zone cycle.(nanosec)..          2432


 dt of cycle      77 is controlled by solid            337 of part         1

 time...........................   3.18098E+01
 time step......................   4.18743E-01
 kinetic energy.................   6.66078E-01
 internal energy................   2.07890E+00
 spring and damper energy.......   1.00000E-20
 hourglass energy ..............   1.01061E-07
 system damping energy..........   0.00000E+00
 sliding interface energy.......   0.00000E+00
 external work..................   0.00000E+00
 eroded kinetic energy..........   0.00000E+00
 eroded internal energy.........   0.00000E+00
 eroded hourglass energy........   0.00000E+00
 total energy...................   2.74498E+00
 total energy / initial energy..   9.97448E-01
 energy ratio w/o eroded energy.   9.97448E-01
 global x velocity..............   3.56400E-08
 global y velocity..............   3.58941E-08
 global z velocity..............   0.00000E+00
 time per zone cycle.(nanosec)..          1760


 dt of cycle      78 is controlled by solid            337 of part         1

 time...........................   3.22286E+01
 time step......................   4.18749E-01
 kinetic energy.................   6.72392E-01
 internal energy................   2.07245E+00
 spring and damper energy.......   1.00000E-20
 hourglass energy ..............   1.03904E-07
 system damping energy..........   0.00000E+00
 sliding interface energy.......   0.00000E+00
 external work..................   0.00000E+00
 eroded kinetic energy..........   0.00000E+00
 eroded internal energy.........   0.00000E+00
 eroded hourglass energy........   0.00000E+00
 total energy...................   2.74484E+00
 total energy / initial energy..   9.97398E-01
 energy ratio w/o eroded energy.   9.97398E-01
 global x velocity..............   3.63090E-08
 global y velocity..............   3.67188E-08
 global z velocity..............   0.00000E+00
 time per zone cycle.(nanosec)..          1529


 dt of cycle      79 is controlled by solid            345 of part         1

 time...........................   3.26473E+01
 time step......................   4.18746E-01
 kinetic energy.................   6.78041E-01
 internal energy................   2.06667E+00
 spring and damper energy.......   1.00000E-20
 hourglass energy ..............   1.06579E-07
 system damping energy..........   0.00000E+00
 sliding interface energy.......   0.00000E+00
 external work..................   0.00000E+00
 eroded kinetic energy..........   0.00000E+00
 eroded internal energy.........   0.00000E+00
 eroded hourglass energy........   0.00000E+00
 total energy...................   2.74471E+00
 total energy / initial energy..   9.97351E-01
 energy ratio w/o eroded energy.   9.97351E-01
 global x velocity..............   3.69150E-08
 global y velocity..............   3.75438E-08
 global z velocity..............   0.00000E+00
 time per zone cycle.(nanosec)..          1532


 dt of cycle      80 is controlled by solid            353 of part         1

 time...........................   3.30661E+01
 time step......................   4.18749E-01
 kinetic energy.................   6.82806E-01
 internal energy................   2.06180E+00
 spring and damper energy.......   1.00000E-20
 hourglass energy ..............   1.09150E-07
 system damping energy..........   0.00000E+00
 sliding interface energy.......   0.00000E+00
 external work..................   0.00000E+00
 eroded kinetic energy..........   0.00000E+00
 eroded internal energy.........   0.00000E+00
 eroded hourglass energy........   0.00000E+00
 total energy...................   2.74460E+00
 total energy / initial energy..   9.97312E-01
 energy ratio w/o eroded energy.   9.97312E-01
 global x velocity..............   3.74472E-08
 global y velocity..............   3.83691E-08
 global z velocity..............   0.00000E+00
 time per zone cycle.(nanosec)..          2193


 dt of cycle      81 is controlled by solid            361 of part         1

 time...........................   3.34848E+01
 time step......................   4.18754E-01
 kinetic energy.................   6.86586E-01
 internal energy................   2.05792E+00
 spring and damper energy.......   1.00000E-20
 hourglass energy ..............   1.11617E-07
 system damping energy..........   0.00000E+00
 sliding interface energy.......   0.00000E+00
 external work..................   0.00000E+00
 eroded kinetic energy..........   0.00000E+00
 eroded internal energy.........   0.00000E+00
 eroded hourglass energy........   0.00000E+00
 total energy...................   2.74451E+00
 total energy / initial energy..   9.97277E-01
 energy ratio w/o eroded energy.   9.97277E-01
 global x velocity..............   3.78980E-08
 global y velocity..............   3.91944E-08
 global z velocity..............   0.00000E+00
 time per zone cycle.(nanosec)..          1419


 dt of cycle      82 is controlled by solid            361 of part         1

 time...........................   3.39036E+01
 time step......................   4.18752E-01
 kinetic energy.................   6.89362E-01
 internal energy................   2.05506E+00
 spring and damper energy.......   1.00000E-20
 hourglass energy ..............   1.13986E-07
 system damping energy..........   0.00000E+00
 sliding interface energy.......   0.00000E+00
 external work..................   0.00000E+00
 eroded kinetic energy..........   0.00000E+00
 eroded internal energy.........   0.00000E+00
 eroded hourglass energy........   0.00000E+00
 total energy...................   2.74442E+00
 total energy / initial energy..   9.97245E-01
 energy ratio w/o eroded energy.   9.97245E-01
 global x velocity..............   3.82634E-08
 global y velocity..............   4.00201E-08
 global z velocity..............   0.00000E+00
 time per zone cycle.(nanosec)..          1561


[...]
 external work..................   0.00000E+00
 eroded kinetic energy..........   0.00000E+00
 eroded internal energy.........   0.00000E+00
 eroded hourglass energy........   0.00000E+00
 total energy...................   2.71868E+00
 total energy / initial energy..   9.87891E-01
 energy ratio w/o eroded energy.   9.87891E-01
 global x velocity..............   7.39437E-08
 global y velocity..............   1.36192E-07
 global z velocity..............   0.00000E+00
 time per zone cycle.(nanosec)..          1969


 dt of cycle     221 is controlled by solid           1248 of part         1

 time...........................   9.20307E+01
 time step......................   4.12111E-01
 kinetic energy.................   1.31100E+00
 internal energy................   1.40708E+00
 spring and damper energy.......   1.00000E-20
 hourglass energy ..............   9.16244E-07
 system damping energy..........   0.00000E+00
 sliding interface energy.......   0.00000E+00
 external work..................   0.00000E+00
 eroded kinetic energy..........   0.00000E+00
 eroded internal energy.........   0.00000E+00
 eroded hourglass energy........   0.00000E+00
 total energy...................   2.71808E+00
 total energy / initial energy..   9.87676E-01
 energy ratio w/o eroded energy.   9.87676E-01
 global x velocity..............   7.37714E-08
 global y velocity..............   1.36669E-07
 global z velocity..............   0.00000E+00
 time per zone cycle.(nanosec)..          1960


 dt of cycle     222 is controlled by solid           1344 of part         1

 time...........................   9.24428E+01
 time step......................   4.10950E-01
 kinetic energy.................   1.31892E+00
 internal energy................   1.39857E+00
 spring and damper energy.......   1.00000E-20
 hourglass energy ..............   9.22563E-07
 system damping energy..........   0.00000E+00
 sliding interface energy.......   0.00000E+00
 external work..................   0.00000E+00
 eroded kinetic energy..........   0.00000E+00
 eroded internal energy.........   0.00000E+00
 eroded hourglass energy........   0.00000E+00
 total energy...................   2.71748E+00
 total energy / initial energy..   9.87457E-01
 energy ratio w/o eroded energy.   9.87457E-01
 global x velocity..............   7.35420E-08
 global y velocity..............   1.37138E-07
 global z velocity..............   0.00000E+00
 time per zone cycle.(nanosec)..          1678


 dt of cycle     223 is controlled by solid           1280 of part         1

 time...........................   9.28537E+01
 time step......................   4.10866E-01
 kinetic energy.................   1.32677E+00
 internal energy................   1.39011E+00
 spring and damper energy.......   1.00000E-20
 hourglass energy ..............   9.29016E-07
 system damping energy..........   0.00000E+00
 sliding interface energy.......   0.00000E+00
 external work..................   0.00000E+00
 eroded kinetic energy..........   0.00000E+00
 eroded internal energy.........   0.00000E+00
 eroded hourglass energy........   0.00000E+00
 total energy...................   2.71688E+00
 total energy / initial energy..   9.87240E-01
 energy ratio w/o eroded energy.   9.87240E-01
 global x velocity..............   7.32645E-08
 global y velocity..............   1.37603E-07
 global z velocity..............   0.00000E+00
 time per zone cycle.(nanosec)..          1583


 dt of cycle     224 is controlled by solid           1312 of part         1

 time...........................   9.32646E+01
 time step......................   4.12001E-01
 kinetic energy.................   1.33449E+00
 internal energy................   1.38182E+00
 spring and damper energy.......   1.00000E-20
 hourglass energy ..............   9.35644E-07
 system damping energy..........   0.00000E+00
 sliding interface energy.......   0.00000E+00
 external work..................   0.00000E+00
 eroded kinetic energy..........   0.00000E+00
 eroded internal energy.........   0.00000E+00
 eroded hourglass energy........   0.00000E+00
 total energy...................   2.71631E+00
 total energy / initial energy..   9.87032E-01
 energy ratio w/o eroded energy.   9.87032E-01
 global x velocity..............   7.29469E-08
 global y velocity..............   1.38063E-07
 global z velocity..............   0.00000E+00
 time per zone cycle.(nanosec)..          1745


 dt of cycle     225 is controlled by solid           1312 of part         1

 time...........................   9.36766E+01
 time step......................   4.12790E-01
 kinetic energy.................   1.34195E+00
 internal energy................   1.37376E+00
 spring and damper energy.......   1.00000E-20
 hourglass energy ..............   9.42431E-07
 system damping energy..........   0.00000E+00
 sliding interface energy.......   0.00000E+00
 external work..................   0.00000E+00
 eroded kinetic energy..........   0.00000E+00
 eroded internal energy.........   0.00000E+00
 eroded hourglass energy........   0.00000E+00
 total energy...................   2.71571E+00
 total energy / initial energy..   9.86814E-01
 energy ratio w/o eroded energy.   9.86814E-01
 global x velocity..............   7.25929E-08
 global y velocity..............   1.38518E-07
 global z velocity..............   0.00000E+00
 time per zone cycle.(nanosec)..          1562


 dt of cycle     226 is controlled by solid            761 of part         1

 time...........................   9.40894E+01
 time step......................   4.14348E-01
 kinetic energy.................   1.34937E+00
 internal energy................   1.36573E+00
 spring and damper energy.......   1.00000E-20
 hourglass energy ..............   9.49331E-07
 system damping energy..........   0.00000E+00
 sliding interface energy.......   0.00000E+00
 external work..................   0.00000E+00
 eroded kinetic energy..........   0.00000E+00
 eroded internal energy.........   0.00000E+00
 eroded hourglass energy........   0.00000E+00
 total energy...................   2.71511E+00
 total energy / initial energy..   9.86594E-01
 energy ratio w/o eroded energy.   9.86594E-01
 global x velocity..............   7.22095E-08
 global y velocity..............   1.38970E-07
 global z velocity..............   0.00000E+00
 time per zone cycle.(nanosec)..          1663


 dt of cycle     227 is controlled by solid            761 of part         1

 time...........................   9.45037E+01
 time step......................   4.13420E-01
 kinetic energy.................   1.35688E+00
 internal energy................   1.35753E+00
 spring and damper energy.......   1.00000E-20
 hourglass energy ..............   9.56527E-07
 system damping energy..........   0.00000E+00
 sliding interface energy.......   0.00000E+00
 external work..................   0.00000E+00
 eroded kinetic energy..........   0.00000E+00
 eroded internal energy.........   0.00000E+00
 eroded hourglass energy........   0.00000E+00
 total energy...................   2.71442E+00
 total energy / initial energy..   9.86344E-01
 energy ratio w/o eroded energy.   9.86344E-01
 global x velocity..............   7.18073E-08
 global y velocity..............   1.39420E-07
 global z velocity..............   0.00000E+00
 time per zone cycle.(nanosec)..          1549


 dt of cycle     228 is controlled by solid            761 of part         1

 time...........................   9.49172E+01
 time step......................   4.13760E-01
 kinetic energy.................   1.36417E+00
 internal energy................   1.34962E+00
 spring and damper energy.......   1.00000E-20
 hourglass energy ..............   9.64180E-07
 system damping energy..........   0.00000E+00
 sliding interface energy.......   0.00000E+00
 external work..................   0.00000E+00
 eroded kinetic energy..........   0.00000E+00
 eroded internal energy.........   0.00000E+00
 eroded hourglass energy........   0.00000E+00
 total energy...................   2.71379E+00
 total energy / initial energy..   9.86117E-01
 energy ratio w/o eroded energy.   9.86117E-01
 global x velocity..............   7.13967E-08
 global y velocity..............   1.39864E-07
 global z velocity..............   0.00000E+00
 time per zone cycle.(nanosec)..          1548


 dt of cycle     229 is controlled by solid            761 of part         1

 time...........................   9.53309E+01
 time step......................   4.14270E-01
 kinetic energy.................   1.37128E+00
 internal energy................   1.34186E+00
 spring and damper energy.......   1.00000E-20
 hourglass energy ..............   9.72080E-07
 system damping energy..........   0.00000E+00
 sliding interface energy.......   0.00000E+00
 external work..................   0.00000E+00
 eroded kinetic energy..........   0.00000E+00
 eroded internal energy.........   0.00000E+00
 eroded hourglass energy........   0.00000E+00
 total energy...................   2.71315E+00
 total energy / initial energy..   9.85882E-01
 energy ratio w/o eroded energy.   9.85882E-01
 global x velocity..............   7.09929E-08
 global y velocity..............   1.40307E-07
 global z velocity..............   0.00000E+00
 time per zone cycle.(nanosec)..          1652


 dt of cycle     230 is controlled by solid            761 of part         1

 time...........................   9.57452E+01
 time step......................   4.14723E-01
 kinetic energy.................   1.37842E+00
 internal energy................   1.33405E+00
 spring and damper energy.......   1.00000E-20
 hourglass energy ..............   9.80390E-07
 system damping energy..........   0.00000E+00
 sliding interface energy.......   0.00000E+00
 external work..................   0.00000E+00
 eroded kinetic energy..........   0.00000E+00
 eroded internal energy.........   0.00000E+00
 eroded hourglass energy........   0.00000E+00
 total energy...................   2.71248E+00
 total energy / initial energy..   9.85640E-01
 energy ratio w/o eroded energy.   9.85640E-01
 global x velocity..............   7.06068E-08
 global y velocity..............   1.40750E-07
 global z velocity..............   0.00000E+00
 time per zone cycle.(nanosec)..          2379


 dt of cycle     231 is controlled by solid            761 of part         1

 time...........................   9.61599E+01
 time step......................   4.15123E-01
 kinetic energy.................   1.38548E+00
 internal energy................   1.32634E+00
 spring and damper energy.......   1.00000E-20
 hourglass energy ..............   9.89306E-07
 system damping energy..........   0.00000E+00
 sliding interface energy.......   0.00000E+00
 external work..................   0.00000E+00
 eroded kinetic energy..........   0.00000E+00
 eroded internal energy.........   0.00000E+00
 eroded hourglass energy........   0.00000E+00
 total energy...................   2.71183E+00
 total energy / initial energy..   9.85403E-01
 energy ratio w/o eroded energy.   9.85403E-01
 global x velocity..............   7.02399E-08
 global y velocity..............   1.41194E-07
 global z velocity..............   0.00000E+00
 time per zone cycle.(nanosec)..          2069


 dt of cycle     232 is controlled by solid           3659 of part         1

 time...........................   9.65750E+01
 time step......................   4.15386E-01
 kinetic energy.................   1.39252E+00
 internal energy................   1.31862E+00
 spring and damper energy.......   1.00000E-20
 hourglass energy ..............   9.98780E-07
 system damping energy..........   0.00000E+00
 sliding interface energy.......   0.00000E+00
 external work..................   0.00000E+00
 eroded kinetic energy..........   0.00000E+00
 eroded internal energy.........   0.00000E+00
 eroded hourglass energy........   0.00000E+00
 total energy...................   2.71114E+00
 total energy / initial energy..   9.85155E-01
 energy ratio w/o eroded energy.   9.85155E-01
 global x velocity..............   6.98957E-08
 global y velocity..............   1.41634E-07
 global z velocity..............   0.00000E+00
 time per zone cycle.(nanosec)..          1601


 dt of cycle     233 is controlled by solid           3598 of part         1

 time...........................   9.69904E+01
 time step......................   4.15463E-01
 kinetic energy.................   1.39955E+00
 internal energy................   1.31092E+00
 spring and damper energy.......   1.00000E-20
 hourglass energy ..............   1.00888E-06
 system damping energy..........   0.00000E+00
 sliding interface energy.......   0.00000E+00
 external work..................   0.00000E+00
 eroded kinetic energy..........   0.00000E+00
 eroded internal energy.........   0.00000E+00
 eroded hourglass energy........   0.00000E+00
 total energy...................   2.71047E+00
 total energy / initial energy..   9.84910E-01
 energy ratio w/o eroded energy.   9.84910E-01
 global x velocity..............   6.95809E-08
 global y velocity..............   1.42072E-07
 global z velocity..............   0.00000E+00
 time per zone cycle.(nanosec)..          1621


 dt of cycle     234 is controlled by solid           3598 of part         1

 time...........................   9.74059E+01
 time step......................   4.14443E-01
 kinetic energy.................   1.40657E+00
 internal energy................   1.30321E+00
 spring and damper energy.......   1.00000E-20
 hourglass energy ..............   1.01937E-06
 system damping energy..........   0.00000E+00
 sliding interface energy.......   0.00000E+00
 external work..................   0.00000E+00
 eroded kinetic energy..........   0.00000E+00
 eroded internal energy.........   0.00000E+00
 eroded hourglass energy........   0.00000E+00
 total energy...................   2.70978E+00
 total energy / initial energy..   9.84660E-01
 energy ratio w/o eroded energy.   9.84660E-01
 global x velocity..............   6.93000E-08
 global y velocity..............   1.42509E-07
 global z velocity..............   0.00000E+00
 time per zone cycle.(nanosec)..          1718


 dt of cycle     235 is controlled by solid           3598 of part         1

 time...........................   9.78203E+01
 time step......................   4.13681E-01
 kinetic energy.................   1.41358E+00
 internal energy................   1.29552E+00
 spring and damper energy.......   1.00000E-20
 hourglass energy ..............   1.03033E-06
 system damping energy..........   0.00000E+00
 sliding interface energy.......   0.00000E+00
 external work..................   0.00000E+00
 eroded kinetic energy..........   0.00000E+00
 eroded internal energy.........   0.00000E+00
 eroded hourglass energy........   0.00000E+00
 total energy...................   2.70910E+00
 total energy / initial energy..   9.84411E-01
 energy ratio w/o eroded energy.   9.84411E-01
 global x velocity..............   6.90550E-08
 global y velocity..............   1.42943E-07
 global z velocity..............   0.00000E+00
 time per zone cycle.(nanosec)..          2117


 dt of cycle     236 is controlled by solid           3753 of part         1

 time...........................   9.82340E+01
 time step......................   4.14580E-01
 kinetic energy.................   1.42055E+00
 internal energy................   1.28788E+00
 spring and damper energy.......   1.00000E-20
 hourglass energy ..............   1.04170E-06
 system damping energy..........   0.00000E+00
 sliding interface energy.......   0.00000E+00
 external work..................   0.00000E+00
 eroded kinetic energy..........   0.00000E+00
 eroded internal energy.........   0.00000E+00
 eroded hourglass energy........   0.00000E+00
 total energy...................   2.70843E+00
 total energy / initial energy..   9.84168E-01
 energy ratio w/o eroded energy.   9.84168E-01
 global x velocity..............   6.88413E-08
 global y velocity..............   1.43376E-07
 global z velocity..............   0.00000E+00
 time per zone cycle.(nanosec)..          1880


 dt of cycle     237 is controlled by solid           3599 of part         1

 time...........................   9.86486E+01
 time step......................   4.12593E-01
 kinetic energy.................   1.42740E+00
 internal energy................   1.28033E+00
 spring and damper energy.......   1.00000E-20
 hourglass energy ..............   1.05339E-06
 system damping energy..........   0.00000E+00
 sliding interface energy.......   0.00000E+00
 external work..................   0.00000E+00
 eroded kinetic energy..........   0.00000E+00
 eroded internal energy.........   0.00000E+00
 eroded hourglass energy........   0.00000E+00
 total energy...................   2.70773E+00
 total energy / initial energy..   9.83912E-01
 energy ratio w/o eroded energy.   9.83912E-01
 global x velocity..............   6.86562E-08
 global y velocity..............   1.43811E-07
 global z velocity..............   0.00000E+00
 time per zone cycle.(nanosec)..          1671


 dt of cycle     238 is controlled by solid           3599 of part         1

 time...........................   9.90612E+01
 time step......................   4.13628E-01
 kinetic energy.................   1.43409E+00
 internal energy................   1.27295E+00
 spring and damper energy.......   1.00000E-20
 hourglass energy ..............   1.06525E-06
 system damping energy..........   0.00000E+00
 sliding interface energy.......   0.00000E+00
 external work..................   0.00000E+00
 eroded kinetic energy..........   0.00000E+00
 eroded internal energy.........   0.00000E+00
 eroded hourglass energy........   0.00000E+00
 total energy...................   2.70705E+00
 total energy / initial energy..   9.83666E-01
 energy ratio w/o eroded energy.   9.83666E-01
 global x velocity..............   6.84975E-08
 global y velocity..............   1.44246E-07
 global z velocity..............   0.00000E+00
 time per zone cycle.(nanosec)..          1930


 dt of cycle     239 is controlled by solid           3600 of part         1

 time...........................   9.94748E+01
 time step......................   4.13346E-01
 kinetic energy.................   1.44065E+00
 internal energy................   1.26572E+00
 spring and damper energy.......   1.00000E-20
 hourglass energy ..............   1.07725E-06
 system damping energy..........   0.00000E+00
 sliding interface energy.......   0.00000E+00
 external work..................   0.00000E+00
 eroded kinetic energy..........   0.00000E+00
 eroded internal energy.........   0.00000E+00
 eroded hourglass energy........   0.00000E+00
 total energy...................   2.70637E+00
 total energy / initial energy..   9.83418E-01
 energy ratio w/o eroded energy.   9.83418E-01
 global x velocity..............   6.83631E-08
 global y velocity..............   1.44681E-07
 global z velocity..............   0.00000E+00
 time per zone cycle.(nanosec)..          1684


 dt of cycle     240 is controlled by solid           3632 of part         1

 time...........................   9.98882E+01
 time step......................   4.14671E-01
 kinetic energy.................   1.44704E+00
 internal energy................   1.25864E+00
 spring and damper energy.......   1.00000E-20
 hourglass energy ..............   1.08920E-06
 system damping energy..........   0.00000E+00
 sliding interface energy.......   0.00000E+00
 external work..................   0.00000E+00
 eroded kinetic energy..........   0.00000E+00
 eroded internal energy.........   0.00000E+00
 eroded hourglass energy........   0.00000E+00
 total energy...................   2.70569E+00
 total energy / initial energy..   9.83172E-01
 energy ratio w/o eroded energy.   9.83172E-01
 global x velocity..............   6.82510E-08
 global y velocity..............   1.45113E-07
 global z velocity..............   0.00000E+00
 time per zone cycle.(nanosec)..          1630
